powerfulcases/cases/matpower/case30Q/case30Q.raw
0, 100, 33, 0, 0, 60  / 28-Jan-2026 21:52:00 - MATPOWER 8.1


     1, 'BUS 1       ',       135, 3,    1,    1, 1,           1,           0, 1.05, 0.95, 1.05, 0.95
     2, 'BUS 2       ',       135, 2,    1,    1, 1,           1,           0,  1.1, 0.95,  1.1, 0.95
     3, 'BUS 3       ',       135, 1,    1,    1, 1,           1,           0, 1.05, 0.95, 1.05, 0.95
     4, 'BUS 4       ',       135, 1,    1,    1, 1,           1,           0, 1.05, 0.95, 1.05, 0.95
     5, 'BUS 5       ',       135, 1,    1,    1, 1,           1,           0, 1.05, 0.95, 1.05, 0.95
     6, 'BUS 6       ',       135, 1,    1,    1, 1,           1,           0, 1.05, 0.95, 1.05, 0.95
     7, 'BUS 7       ',       135, 1,    1,    1, 1,           1,           0, 1.05, 0.95, 1.05, 0.95
     8, 'BUS 8       ',       135, 1,    1,    1, 1,           1,           0, 1.05, 0.95, 1.05, 0.95
     9, 'BUS 9       ',       135, 1,    1,    1, 1,           1,           0, 1.05, 0.95, 1.05, 0.95
    10, 'BUS 10      ',       135, 1,    3,    1, 1,           1,           0, 1.05, 0.95, 1.05, 0.95
    11, 'BUS 11      ',       135, 1,    1,    1, 1,           1,           0, 1.05, 0.95, 1.05, 0.95
    12, 'BUS 12      ',       135, 1,    2,    1, 1,           1,           0, 1.05, 0.95, 1.05, 0.95
    13, 'BUS 13      ',       135, 2,    2,    1, 1,           1,           0,  1.1, 0.95,  1.1, 0.95
    14, 'BUS 14      ',       135, 1,    2,    1, 1,           1,           0, 1.05, 0.95, 1.05, 0.95
    15, 'BUS 15      ',       135, 1,    2,    1, 1,           1,           0, 1.05, 0.95, 1.05, 0.95
    16, 'BUS 16      ',       135, 1,    2,    1, 1,           1,           0, 1.05, 0.95, 1.05, 0.95
    17, 'BUS 17      ',       135, 1,    2,    1, 1,           1,           0, 1.05, 0.95, 1.05, 0.95
    18, 'BUS 18      ',       135, 1,    2,    1, 1,           1,           0, 1.05, 0.95, 1.05, 0.95
    19, 'BUS 19      ',       135, 1,    2,    1, 1,           1,           0, 1.05, 0.95, 1.05, 0.95
    20, 'BUS 20      ',       135, 1,    2,    1, 1,           1,           0, 1.05, 0.95, 1.05, 0.95
    21, 'BUS 21      ',       135, 1,    3,    1, 1,           1,           0, 1.05, 0.95, 1.05, 0.95
    22, 'BUS 22      ',       135, 2,    3,    1, 1,           1,           0,  1.1, 0.95,  1.1, 0.95
    23, 'BUS 23      ',       135, 2,    2,    1, 1,           1,           0,  1.1, 0.95,  1.1, 0.95
    24, 'BUS 24      ',       135, 1,    3,    1, 1,           1,           0, 1.05, 0.95, 1.05, 0.95
    25, 'BUS 25      ',       135, 1,    3,    1, 1,           1,           0, 1.05, 0.95, 1.05, 0.95
    26, 'BUS 26      ',       135, 1,    3,    1, 1,           1,           0, 1.05, 0.95, 1.05, 0.95
    27, 'BUS 27      ',       135, 2,    3,    1, 1,           1,           0,  1.1, 0.95,  1.1, 0.95
    28, 'BUS 28      ',       135, 1,    1,    1, 1,           1,           0, 1.05, 0.95, 1.05, 0.95
    29, 'BUS 29      ',       135, 1,    3,    1, 1,           1,           0, 1.05, 0.95, 1.05, 0.95
    30, 'BUS 30      ',       135, 1,    3,    1, 1,           1,           0, 1.05, 0.95, 1.05, 0.95
0 / END OF BUS DATA, BEGIN LOAD DATA
     2,  1, 1,    1,    1,      21.7,      12.7, 0, 0, 0, 0, 1, 1, 0
     3,  1, 1,    1,    1,       2.4,       1.2, 0, 0, 0, 0, 1, 1, 0
     4,  1, 1,    1,    1,       7.6,       1.6, 0, 0, 0, 0, 1, 1, 0
     7,  1, 1,    1,    1,      22.8,      10.9, 0, 0, 0, 0, 1, 1, 0
     8,  1, 1,    1,    1,        30,        30, 0, 0, 0, 0, 1, 1, 0
    10,  1, 1,    3,    1,       5.8,         2, 0, 0, 0, 0, 1, 1, 0
    12,  1, 1,    2,    1,      11.2,       7.5, 0, 0, 0, 0, 1, 1, 0
    14,  1, 1,    2,    1,       6.2,       1.6, 0, 0, 0, 0, 1, 1, 0
    15,  1, 1,    2,    1,       8.2,       2.5, 0, 0, 0, 0, 1, 1, 0
    16,  1, 1,    2,    1,       3.5,       1.8, 0, 0, 0, 0, 1, 1, 0
    17,  1, 1,    2,    1,         9,       5.8, 0, 0, 0, 0, 1, 1, 0
    18,  1, 1,    2,    1,       3.2,       0.9, 0, 0, 0, 0, 1, 1, 0
    19,  1, 1,    2,    1,       9.5,       3.4, 0, 0, 0, 0, 1, 1, 0
    20,  1, 1,    2,    1,       2.2,       0.7, 0, 0, 0, 0, 1, 1, 0
    21,  1, 1,    3,    1,      17.5,      11.2, 0, 0, 0, 0, 1, 1, 0
    23,  1, 1,    2,    1,       3.2,       1.6, 0, 0, 0, 0, 1, 1, 0
    24,  1, 1,    3,    1,       8.7,       6.7, 0, 0, 0, 0, 1, 1, 0
    26,  1, 1,    3,    1,       3.5,       2.3, 0, 0, 0, 0, 1, 1, 0
    29,  1, 1,    3,    1,       2.4,       0.9, 0, 0, 0, 0, 1, 1, 0
    30,  1, 1,    3,    1,      10.6,       1.9, 0, 0, 0, 0, 1, 1, 0
0 / END OF LOAD DATA, BEGIN FIXED SHUNT DATA
     5, 1, 1,       0,    0.19
    24, 1, 1,       0,    0.04
0 / END OF FIXED SHUNT DATA, BEGIN GENERATOR DATA
     1,  1,     23.54,         0,       150,       -20,        1, 0,     100, 0, 1, 0, 0, 1, 1, 100,        80,         0, 1, 1, 0, 1, 0, 1, 0, 1, 0, 1
     2,  1,     60.97,         0,        60,       -20,        1, 0,     100, 0, 1, 0, 0, 1, 1, 100,        80,         0, 1, 1, 0, 1, 0, 1, 0, 1, 0, 1
    22,  1,     21.59,         0,      62.5,       -15,        1, 0,     100, 0, 1, 0, 0, 1, 1, 100,        50,         0, 1, 1, 0, 1, 0, 1, 0, 1, 0, 1
    27,  1,     26.91,         0,      48.7,       -15,        1, 0,     100, 0, 1, 0, 0, 1, 1, 100,        55,         0, 1, 1, 0, 1, 0, 1, 0, 1, 0, 1
    23,  1,      19.2,         0,        40,       -10,        1, 0,     100, 0, 1, 0, 0, 1, 1, 100,        30,         0, 1, 1, 0, 1, 0, 1, 0, 1, 0, 1
    13,  1,        37,         0,      44.7,       -15,        1, 0,     100, 0, 1, 0, 0, 1, 1, 100,        40,         0, 1, 1, 0, 1, 0, 1, 0, 1, 0, 1
0 / END OF GENERATOR DATA, BEGIN BRANCH DATA
     1,      2, 1,     0.02,     0.06,     0.03,     130,     130,     130, 0, 0, 0, 0, 1, 1, 0, 1, 1, 0, 1, 0, 1, 0, 1
     1,      3, 1,     0.05,     0.19,     0.02,     130,     130,     130, 0, 0, 0, 0, 1, 1, 0, 1, 1, 0, 1, 0, 1, 0, 1
     2,      4, 1,     0.06,     0.17,     0.02,      65,      65,      65, 0, 0, 0, 0, 1, 1, 0, 1, 1, 0, 1, 0, 1, 0, 1
     3,      4, 1,     0.01,     0.04,        0,     130,     130,     130, 0, 0, 0, 0, 1, 1, 0, 1, 1, 0, 1, 0, 1, 0, 1
     2,      5, 1,     0.05,      0.2,     0.02,     130,     130,     130, 0, 0, 0, 0, 1, 1, 0, 1, 1, 0, 1, 0, 1, 0, 1
     2,      6, 1,     0.06,     0.18,     0.02,      65,      65,      65, 0, 0, 0, 0, 1, 1, 0, 1, 1, 0, 1, 0, 1, 0, 1
     4,      6, 1,     0.01,     0.04,        0,      90,      90,      90, 0, 0, 0, 0, 1, 1, 0, 1, 1, 0, 1, 0, 1, 0, 1
     5,      7, 1,     0.05,     0.12,     0.01,      70,      70,      70, 0, 0, 0, 0, 1, 1, 0, 1, 1, 0, 1, 0, 1, 0, 1
     6,      7, 1,     0.03,     0.08,     0.01,     130,     130,     130, 0, 0, 0, 0, 1, 1, 0, 1, 1, 0, 1, 0, 1, 0, 1
     6,      8, 1,     0.01,     0.04,        0,      32,      32,      32, 0, 0, 0, 0, 1, 1, 0, 1, 1, 0, 1, 0, 1, 0, 1
     6,      9, 1,        0,     0.21,        0,      65,      65,      65, 0, 0, 0, 0, 1, 1, 0, 1, 1, 0, 1, 0, 1, 0, 1
     6,     10, 1,        0,     0.56,        0,      32,      32,      32, 0, 0, 0, 0, 1, 1, 0, 1, 1, 0, 1, 0, 1, 0, 1
     9,     11, 1,        0,     0.21,        0,      65,      65,      65, 0, 0, 0, 0, 1, 1, 0, 1, 1, 0, 1, 0, 1, 0, 1
     9,     10, 1,        0,     0.11,        0,      65,      65,      65, 0, 0, 0, 0, 1, 1, 0, 1, 1, 0, 1, 0, 1, 0, 1
     4,     12, 1,        0,     0.26,        0,      65,      65,      65, 0, 0, 0, 0, 1, 1, 0, 1, 1, 0, 1, 0, 1, 0, 1
    12,     13, 1,        0,     0.14,        0,      65,      65,      65, 0, 0, 0, 0, 1, 1, 0, 1, 1, 0, 1, 0, 1, 0, 1
    12,     14, 1,     0.12,     0.26,        0,      32,      32,      32, 0, 0, 0, 0, 1, 1, 0, 1, 1, 0, 1, 0, 1, 0, 1
    12,     15, 1,     0.07,     0.13,        0,      32,      32,      32, 0, 0, 0, 0, 1, 1, 0, 1, 1, 0, 1, 0, 1, 0, 1
    12,     16, 1,     0.09,      0.2,        0,      32,      32,      32, 0, 0, 0, 0, 1, 1, 0, 1, 1, 0, 1, 0, 1, 0, 1
    14,     15, 1,     0.22,      0.2,        0,      16,      16,      16, 0, 0, 0, 0, 1, 1, 0, 1, 1, 0, 1, 0, 1, 0, 1
    16,     17, 1,     0.08,     0.19,        0,      16,      16,      16, 0, 0, 0, 0, 1, 1, 0, 1, 1, 0, 1, 0, 1, 0, 1
    15,     18, 1,     0.11,     0.22,        0,      16,      16,      16, 0, 0, 0, 0, 1, 1, 0, 1, 1, 0, 1, 0, 1, 0, 1
    18,     19, 1,     0.06,     0.13,        0,      16,      16,      16, 0, 0, 0, 0, 1, 1, 0, 1, 1, 0, 1, 0, 1, 0, 1
    19,     20, 1,     0.03,     0.07,        0,      32,      32,      32, 0, 0, 0, 0, 1, 1, 0, 1, 1, 0, 1, 0, 1, 0, 1
    10,     20, 1,     0.09,     0.21,        0,      32,      32,      32, 0, 0, 0, 0, 1, 1, 0, 1, 1, 0, 1, 0, 1, 0, 1
    10,     17, 1,     0.03,     0.08,        0,      32,      32,      32, 0, 0, 0, 0, 1, 1, 0, 1, 1, 0, 1, 0, 1, 0, 1
    10,     21, 1,     0.03,     0.07,        0,      32,      32,      32, 0, 0, 0, 0, 1, 1, 0, 1, 1, 0, 1, 0, 1, 0, 1
    10,     22, 1,     0.07,     0.15,        0,      32,      32,      32, 0, 0, 0, 0, 1, 1, 0, 1, 1, 0, 1, 0, 1, 0, 1
    21,     22, 1,     0.01,     0.02,        0,      32,      32,      32, 0, 0, 0, 0, 1, 1, 0, 1, 1, 0, 1, 0, 1, 0, 1
    15,     23, 1,      0.1,      0.2,        0,      16,      16,      16, 0, 0, 0, 0, 1, 1, 0, 1, 1, 0, 1, 0, 1, 0, 1
    22,     24, 1,     0.12,     0.18,        0,      16,      16,      16, 0, 0, 0, 0, 1, 1, 0, 1, 1, 0, 1, 0, 1, 0, 1
    23,     24, 1,     0.13,     0.27,        0,      16,      16,      16, 0, 0, 0, 0, 1, 1, 0, 1, 1, 0, 1, 0, 1, 0, 1
    24,     25, 1,     0.19,     0.33,        0,      16,      16,      16, 0, 0, 0, 0, 1, 1, 0, 1, 1, 0, 1, 0, 1, 0, 1
    25,     26, 1,     0.25,     0.38,        0,      16,      16,      16, 0, 0, 0, 0, 1, 1, 0, 1, 1, 0, 1, 0, 1, 0, 1
    25,     27, 1,     0.11,     0.21,        0,      16,      16,      16, 0, 0, 0, 0, 1, 1, 0, 1, 1, 0, 1, 0, 1, 0, 1
    28,     27, 1,        0,      0.4,        0,      65,      65,      65, 0, 0, 0, 0, 1, 1, 0, 1, 1, 0, 1, 0, 1, 0, 1
    27,     29, 1,     0.22,     0.42,        0,      16,      16,      16, 0, 0, 0, 0, 1, 1, 0, 1, 1, 0, 1, 0, 1, 0, 1
    27,     30, 1,     0.32,      0.6,        0,      16,      16,      16, 0, 0, 0, 0, 1, 1, 0, 1, 1, 0, 1, 0, 1, 0, 1
    29,     30, 1,     0.24,     0.45,        0,      16,      16,      16, 0, 0, 0, 0, 1, 1, 0, 1, 1, 0, 1, 0, 1, 0, 1
     8,     28, 1,     0.06,      0.2,     0.02,      32,      32,      32, 0, 0, 0, 0, 1, 1, 0, 1, 1, 0, 1, 0, 1, 0, 1
     6,     28, 1,     0.02,     0.06,     0.01,      32,      32,      32, 0, 0, 0, 0, 1, 1, 0, 1, 1, 0, 1, 0, 1, 0, 1
0 / END OF BRANCH DATA, BEGIN TRANSFORMER DATA
0 / END OF TRANSFORMER DATA, BEGIN AREA DATA
0 / END OF AREA DATA, BEGIN TWO-TERMINAL DC DATA
0 / END OF TWO-TERMINAL DC DATA, BEGIN VOLTAGE SOURCE CONVERTER DATA
0 / END OF VOLTAGE SOURCE CONVERTER DATA, BEGIN IMPEDANCE CORRECTION DATA
0 / END OF IMPEDANCE CORRECTION DATA, BEGIN MULTI-TERMINAL DC DATA
0 / END OF MULTI-TERMINAL DC DATA, BEGIN MULTI-SECTION LINE DATA
0 / END OF MULTI-SECTION LINE DATA, BEGIN ZONE DATA
0 / END OF ZONE DATA, BEGIN INTER-AREA TRANSFER DATA
0 / END OF INTER-AREA TRANSFER DATA, BEGIN OWNER DATA
0 / END OF OWNER DATA, BEGIN FACTS CONTROL DEVICE DATA
0 / END OF FACTS CONTROL DEVICE DATA, BEGIN SWITCHED SHUNT DATA
0 / END OF SWITCHED SHUNT DATA, BEGIN GNE DEVICE DATA
0 / END OF GNE DEVICE DATA, BEGIN INDUCTION MACHINE DATA
0 / END OF INDUCTION MACHINE DATA
Q
